@<TRIPOS>MOLECULE
8EXL_only_ligand
34   38    1
SMALL
USER_CHARGES


@<TRIPOS>ATOM
      1 C2        -22.2310   18.0260   33.0920 C.2       1 799         0.0000 
      2 C4        -21.1380   17.9820   34.1170 C.3       1 799         0.0000 
      3 C5        -21.4250   16.8850   35.1440 C.3       1 799         0.0000 
      4 C6        -21.0450   19.3490   34.8020 C.3       1 799         0.0000 
      5 C8        -19.6510   16.6840   32.5490 C.ar      1 799         0.0000 
      6 C12       -17.6240   15.8670   31.2280 C.ar      1 799         0.0000 
      7 C16       -14.1230   15.9060   28.1530 C.3       1 799         0.0000 
      8 C17       -13.4250   14.5850   27.8600 C.3       1 799         0.0000 
      9 C19       -14.2880   12.4440   26.8860 C.ar      1 799         0.0000 
     10 C23       -16.2540   14.2830   29.3870 C.ar      1 799         0.0000 
     11 C24       -17.5340   13.9390   29.8130 C.ar      1 799         0.0000 
     12 C32       -17.7900    9.7450   27.5070 C.3       1 799         0.0000 
     13 C33       -19.1010    9.6500   26.7280 C.3       1 799         0.0000 
     14 C34       -17.6580    8.6530   28.5690 C.3       1 799         0.0000 
     15 N1        -22.0090   18.5830   31.8770 N.am      1 799         0.0000 
     16 O3        -23.3080   17.5440   33.3600 O.2       1 799         0.0000 
     17 N7        -19.8640   17.6660   33.4580 N.pl3     1 799         0.0000 
     18 C9        -18.3280   16.7450   32.2030 C.ar      1 799         0.0000 
     19 C10       -17.7430   17.8190   32.9090 C.ar      1 799         0.0000 
     20 N11       -18.6660   18.3600   33.6570 N.2       1 799         0.0000 
     21 C13       -16.3590   16.2360   30.8140 C.ar      1 799         0.0000 
     22 C14       -15.6660   15.4690   29.9040 C.ar      1 799         0.0000 
     23 O15       -14.4460   15.8860   29.5450 O.3       1 799         0.0000 
     24 N18       -14.4050   13.5170   27.7200 N.pl3     1 799         0.0000 
     25 C20       -15.3940   11.6690   27.0440 C.ar      1 799         0.0000 
     26 N21       -16.1800   12.2700   27.9680 N.2       1 799         0.0000 
     27 C22       -15.6200   13.3770   28.3940 C.ar      1 799         0.0000 
     28 C25       -18.2190   14.7110   30.7290 C.ar      1 799         0.0000 
     29 C26       -15.6460   10.3870   26.3550 C.ar      1 799         0.0000 
     30 N27       -14.8700    9.8190   25.4530 N.2       1 799         0.0000 
     31 C28       -15.3890    8.6570   25.0770 C.ar      1 799         0.0000 
     32 C29       -14.8020    7.7060   24.0580 C.3       1 799         0.0000 
     33 N30       -16.4940    8.4600   25.7390 N.2       1 799         0.0000 
     34 N31       -16.6760    9.5590   26.5780 N.pl3     1 799         0.0000 
@<TRIPOS>BOND
     1    1    2 1    
     2    1   15 am   BACKBONE|DICT|INTERRES
     3    1   16 2    
     4    2    3 1    
     5    2    4 1    
     6    2   17 1    
     7    5   17 ar   
     8    5   18 ar   
     9    6   18 1    
    10    6   21 ar   
    11    6   28 ar   
    12    7    8 1    
    13    7   23 1    
    14    8   24 1    
    15    9   24 ar   
    16    9   25 ar   
    17   10   11 ar   
    18   10   22 ar   
    19   10   27 1    
    20   11   28 ar   
    21   12   13 1    
    22   12   14 1    
    23   12   34 1    
    24   17   20 ar   
    25   18   19 ar   
    26   19   20 ar   
    27   21   22 ar   
    28   22   23 1    
    29   24   27 ar   
    30   25   26 ar   
    31   25   29 1    
    32   26   27 ar   
    33   29   30 ar   
    34   29   34 ar   
    35   30   31 ar   
    36   31   32 1    
    37   31   33 ar   
    38   33   34 ar   
@<TRIPOS>SUBSTRUCTURE
     1 799         1 GROUP             0 A     ****    0 ROOT    
